pylon/test/data/bench30.m
function mpc = bench30

%% MATPOWER Case Format : Version 2
mpc.version = '2';

%%%%-----  Power Flow Data  -----%%%%
%%%% system MVA base
mpc.baseMVA = 100;

%%%% bus data
%%	bus_i	type	Pd	Qd	Gs	Bs	area	Vm	Va	baseKV	zone	Vmax	Vmin	lam_P	lam_Q	mu_Vmax	mu_Vmin
mpc.bus = [
	1	1	0	0	0	0	1	1.02587	19.1741	0	1	1.1	0.9	0.0000	0.0000	0.0000	0.0000;
	2	1	88.2	22	0	0	1	0.98906	13.0316	0	1	1.1	0.9	0.0000	0.0000	0.0000	0.0000;
	3	1	23.2	7.5	0	0	1	1.0202	14.5082	0	1	1.1	0.9	0.0000	0.0000	0.0000	0.0000;
	4	2	41.7	13.6	0	0	1	1.00161	8.1589	0	1	1.1	0.9	0.0000	0.0000	0.0000	0.0000;
	5	1	0	0	0	0	1	0.99649	2.9486	0	1	1.1	0.9	0.0000	0.0000	0.0000	0.0000;
	6	2	42.3	10.8	0	0	1	1.03	5.1081	0	1	1.1	0.9	0.0000	0.0000	0.0000	0.0000;
	7	1	31.5	8.1	0	0	1	1.00579	5.3694	0	1	1.1	0.9	0.0000	0.0000	0.0000	0.0000;
	8	1	4	1	0	0	1	1.01417	7.7956	0	1	1.1	0.9	0.0000	0.0000	0.0000	0.0000;
	9	1	36	9	0	0	1	1.005	5.6613	0	1	1.1	0.9	0.0000	0.0000	0.0000	0.0000;
	10	1	29.7	9.9	0	0	1	1.0225	4.7094	0	1	1.1	0.9	0.0000	0.0000	0.0000	0.0000;
	11	1	14.4	3.6	0	0	1	1.02436	3.7666	0	1	1.1	0.9	0.0000	0.0000	0.0000	0.0000;
	12	1	12.5	4.1	0	0	1	1.01774	2.1038	0	1	1.1	0.9	0.0000	0.0000	0.0000	0.0000;
	13	1	16.2	5.4	0	0	1	0.99619	2.9301	0	1	1.1	0.9	0.0000	0.0000	0.0000	0.0000;
	14	1	0	0	0	0	1	0.99755	2.9203	0	1	1.1	0.9	0.0000	0.0000	0.0000	0.0000;
	15	2	9	2.2	0	0	1	1.02592	2.0369	0	1	1.1	0.9	0.0000	0.0000	0.0000	0.0000;
	16	1	0	0	0	0	1	0.99706	3.0588	0	1	1.1	0.9	0.0000	0.0000	0.0000	0.0000;
	17	1	27	6.7	0	0	1	1.02301	16.267	0	1	1.1	0.9	0.0000	0.0000	0.0000	0.0000;
	18	2	28.8	9.6	0	0	1	0.98266	8.4433	0	1	1.1	0.9	0.0000	0.0000	0.0000	0.0000;
	19	1	15.1	4.9	0	0	1	1.00694	14.7158	0	1	1.1	0.9	0.0000	0.0000	0.0000	0.0000;
	20	1	10.8	3.1	0	0	1	0.99692	5.4538	0	1	1.1	0.9	0.0000	0.0000	0.0000	0.0000;
	21	2	22.5	7.2	0	0	1	1.00804	6.5756	0	1	1.1	0.9	0.0000	0.0000	0.0000	0.0000;
	22	1	16.6	4.1	0	0	1	0.97676	5.2488	0	1	1.1	0.9	0.0000	0.0000	0.0000	0.0000;
	23	1	20.7	5.1	0	0	1	1.00294	3.7406	0	1	1.1	0.9	0.0000	0.0000	0.0000	0.0000;
	24	1	15.1	3.9	0	0	1	0.97991	6.566	0	1	1.1	0.9	0.0000	0.0000	0.0000	0.0000;
	25	1	0	0	0	0	1	1.02969	12.4647	0	1	1.1	0.9	0.0000	0.0000	0.0000	0.0000;
	26	2	60.8	0	0	0	1	1.05	13.3101	0	1	1.1	0.9	0.0000	0.0000	0.0000	0.0000;
	27	2	106.5	-13.5	0	0	1	1.05	5.9306	0	1	1.1	0.9	0.0000	0.0000	0.0000	0.0000;
	28	2	45.6	7.2	0	0	1	0.98739	1.9486	0	1	1.1	0.9	0.0000	0.0000	0.0000	0.0000;
	29	1	15.1	3.8	0	0	1	1.02304	10.7484	0	1	1.1	0.9	0.0000	0.0000	0.0000	0.0000;
	30	1	26.7	6.8	0	0	1	1.02305	10.9996	0	1	1.1	0.9	0.0000	0.0000	0.0000	0.0000;
	31	1	0	0	0	0	1	1.02544	10.9471	0	1	1.1	0.9	0.0000	0.0000	0.0000	0.0000;
	32	1	24.9	5.9	0	0	1	1.04297	10.4998	0	1	1.1	0.9	0.0000	0.0000	0.0000	0.0000;
	33	1	0	0	0	0	1	0.99863	11.9619	0	1	1.1	0.9	0.0000	0.0000	0.0000	0.0000;
	34	1	17.3	4.3	0	0	1	1.01839	9.7269	0	1	1.1	0.9	0.0000	0.0000	0.0000	0.0000;
	35	1	22.5	-1.8	0	0	1	1.00881	1.4402	0	1	1.1	0.9	0.0000	0.0000	0.0000	0.0000;
	36	1	8.9	2.3	0	0	1	1.00885	2.415	0	1	1.1	0.9	0.0000	0.0000	0.0000	0.0000;
	37	1	25.6	6.8	0	0	1	1.0197	8.2673	0	1	1.1	0.9	0.0000	0.0000	0.0000	0.0000;
	38	1	27.6	6.8	0	0	1	1.03116	8.1946	0	1	1.1	0.9	0.0000	0.0000	0.0000	0.0000;
	39	1	15.1	3.8	0	0	1	1.01722	9.0745	0	1	1.1	0.9	0.0000	0.0000	0.0000	0.0000;
	40	1	0	0	0	0	1	1.0438	8.4417	0	1	1.1	0.9	0.0000	0.0000	0.0000	0.0000;
	41	2	9.4	2.3	0	0	1	1.03	15.1459	0	1	1.1	0.9	0.0000	0.0000	0.0000	0.0000;
	42	1	0	0	0	0	1	1.02569	13.2589	0	1	1.1	0.9	0.0000	0.0000	0.0000	0.0000;
	43	1	0	0	0	0	1	1.05321	12.9943	0	1	1.1	0.9	0.0000	0.0000	0.0000	0.0000;
	44	2	89.9	0	0	0	1	1.05	12.0566	0	1	1.1	0.9	0.0000	0.0000	0.0000	0.0000;
	45	1	57.9	-6.3	0	0	1	1.02994	12.8536	0	1	1.1	0.9	0.0000	0.0000	0.0000	0.0000;
	46	1	39.8	0	0	0	1	1.05094	12.367	0	1	1.1	0.9	0.0000	0.0000	0.0000	0.0000;
	47	1	0	0	0	0	1	0.99471	2.3727	0	1	1.1	0.9	0.0000	0.0000	0.0000	0.0000;
	48	1	0	0	0	0	1	1.00844	7.6512	0	1	1.1	0.9	0.0000	0.0000	0.0000	0.0000;
	49	1	0	0	0	0	1	1.05141	12.3046	0	1	1.1	0.9	0.0000	0.0000	0.0000	0.0000;
	50	1	1.1	0.4	0	0	1	1.0094	7.8567	0	1	1.1	0.9	0.0000	0.0000	0.0000	0.0000;
	51	2	100.3	20.1	0	0	1	1.03	16.9934	0	1	1.1	0.9	0.0000	0.0000	0.0000	0.0000;
	52	1	53	11.4	0	0	1	0.98625	13.0977	0	1	1.1	0.9	0.0000	0.0000	0.0000	0.0000;
	53	2	45.3	12.6	0	0	1	1.01467	13.4602	0	1	1.1	0.9	0.0000	0.0000	0.0000	0.0000;
	54	2	247.6	49.5	0	0	1	1.01137	9.9246	0	1	1.1	0.9	0.0000	0.0000	0.0000	0.0000;
	55	1	0	0	0	0	1	1.01682	11.8752	0	1	1.1	0.9	0.0000	0.0000	0.0000	0.0000;
	56	2	138.6	28.1	0	0	1	1.02233	6.2061	0	1	1.1	0.9	0.0000	0.0000	0.0000	0.0000;
	57	2	13.5	2.8	0	0	1	1.00935	4.5292	0	1	1.1	0.9	0.0000	0.0000	0.0000	0.0000;
	58	2	32.4	6.7	0	0	1	0.9884	5.426	0	1	1.1	0.9	0.0000	0.0000	0.0000	0.0000;
	59	1	0	0	0	0	1	1.01279	4.9673	0	1	1.1	0.9	0.0000	0.0000	0.0000	0.0000;
	60	1	32.7	4.8	0	0	1	1.02046	3.6898	0	1	1.1	0.9	0.0000	0.0000	0.0000	0.0000;
	61	1	4	1	0	0	1	0.99188	3.9353	0	1	1.1	0.9	0.0000	0.0000	0.0000	0.0000;
	62	1	0	0	0	0	1	1.02238	14.6679	0	1	1.1	0.9	0.0000	0.0000	0.0000	0.0000;
	63	2	0	0	0	0	1	1.03	15.6751	0	1	1.1	0.9	0.0000	0.0000	0.0000	0.0000;
	64	1	56.7	6.3	0	0	1	1.00965	13.4279	0	1	1.1	0.9	0.0000	0.0000	0.0000	0.0000;
	65	1	12.3	-0.4	0	0	1	0.99596	4.5646	0	1	1.1	0.9	0.0000	0.0000	0.0000	0.0000;
	66	1	53.6	7.6	0	0	1	1.00527	7.5419	0	1	1.1	0.9	0.0000	0.0000	0.0000	0.0000;
	67	1	0	0	0	0	1	0.99121	11.7123	0	1	1.1	0.9	0.0000	0.0000	0.0000	0.0000;
	68	1	5.7	1.8	0	0	1	0.99624	6.2723	0	1	1.1	0.9	0.0000	0.0000	0.0000	0.0000;
	69	2	37.9	4.9	0	0	1	1.0106	8.3321	0	1	1.1	0.9	0.0000	0.0000	0.0000	0.0000;
	70	1	30.1	2.5	0	0	1	0.99481	6.9277	0	1	1.1	0.9	0.0000	0.0000	0.0000	0.0000;
	71	1	17.5	5.1	0	0	1	0.99421	13.7642	0	1	1.1	0.9	0.0000	0.0000	0.0000	0.0000;
	72	1	17.3	-1.7	0	0	1	1.02822	6.9879	0	1	1.1	0.9	0.0000	0.0000	0.0000	0.0000;
	73	1	2.4	0.6	0	0	1	1.01863	8.9542	0	1	1.1	0.9	0.0000	0.0000	0.0000	0.0000;
	74	1	36	4.5	0	0	1	1.01064	11.3858	0	1	1.1	0.9	0.0000	0.0000	0.0000	0.0000;
	75	1	27	4.5	0	0	1	0.99729	9.6949	0	1	1.1	0.9	0.0000	0.0000	0.0000	0.0000;
	76	1	0	0	0	-100	1	1.0249	13.3917	0	1	1.1	0.9	0.0000	0.0000	0.0000	0.0000;
	77	1	0	0	0	0	1	1.04084	11.4098	0	1	1.1	0.9	0.0000	0.0000	0.0000	0.0000;
	78	1	79.2	0	0	0	1	1.03855	9.047	0	1	1.1	0.9	0.0000	0.0000	0.0000	0.0000;
	79	2	119.7	24.3	0	0	1	1.03043	11.3139	0	1	1.1	0.9	0.0000	0.0000	0.0000	0.0000;
	80	2	128.7	26.1	0	0	1	1.02799	11.2541	0	1	1.1	0.9	0.0000	0.0000	0.0000	0.0000;
	81	2	93.6	18.9	0	0	1	1.02	9.8205	0	1	1.1	0.9	0.0000	0.0000	0.0000	0.0000;
	82	1	36	4.5	0	0	1	1.01392	10.7533	0	1	1.1	0.9	0.0000	0.0000	0.0000	0.0000;
	83	1	53.1	0	0	0	1	0.99563	3.6126	0	1	1.1	0.9	0.0000	0.0000	0.0000	0.0000;
	84	2	96.3	19.8	0	0	1	1.02988	11.0383	0	1	1.1	0.9	0.0000	0.0000	0.0000	0.0000;
	85	1	0	0	0	0	1	1.03641	12.5979	0	1	1.1	0.9	0.0000	0.0000	0.0000	0.0000;
	86	2	35.1	4.5	0	0	1	1.03	13.8673	0	1	1.1	0.9	0.0000	0.0000	0.0000	0.0000;
	87	1	0	0	0	0	1	1.03345	12.6889	0	1	1.1	0.9	0.0000	0.0000	0.0000	0.0000;
	88	1	5.4	0.9	0	0	1	1.02987	10.9204	0	1	1.1	0.9	0.0000	0.0000	0.0000	0.0000;
	89	1	0	0	0	0	1	1.03165	24.5979	0	1	1.1	0.9	0.0000	0.0000	0.0000	0.0000;
	90	1	8.5	2.1	0	0	1	1.03647	26.6587	0	1	1.1	0.9	0.0000	0.0000	0.0000	0.0000;
	91	2	13.7	3.9	0	0	1	1.05069	27.8028	0	1	1.1	0.9	0.0000	0.0000	0.0000	0.0000;
	92	1	10.3	2.5	0	0	1	1.0291	26.1923	0	1	1.1	0.9	0.0000	0.0000	0.0000	0.0000;
	93	1	13	3.2	0	0	1	1.01635	19.7976	0	1	1.1	0.9	0.0000	0.0000	0.0000	0.0000;
	94	1	17	4.7	0	0	1	1.03031	21.288	0	1	1.1	0.9	0.0000	0.0000	0.0000	0.0000;
	95	1	31.4	9.6	0	0	1	0.99885	15.281	0	1	1.1	0.9	0.0000	0.0000	0.0000	0.0000;
	96	2	29.9	7.8	0	0	1	1.03	18.7136	0	1	1.1	0.9	0.0000	0.0000	0.0000	0.0000;
	97	1	0	0	0	0	1	1.02705	18.781	0	1	1.1	0.9	0.0000	0.0000	0.0000	0.0000;
	98	2	17.6	5.3	0	0	1	0.99875	14.8866	0	1	1.1	0.9	0.0000	0.0000	0.0000	0.0000;
	99	1	36.8	2.2	0	0	1	1.02103	14.5665	0	1	1.1	0.9	0.0000	0.0000	0.0000	0.0000;
	100	1	55.5	8.4	0	0	1	0.97191	6.6239	0	1	1.1	0.9	0.0000	0.0000	0.0000	0.0000;
	101	1	13.9	3.4	0	0	1	1.00728	21.1399	0	1	1.1	0.9	0.0000	0.0000	0.0000	0.0000;
	102	1	18.2	4.9	0	0	1	1.01997	16.615	0	1	1.1	0.9	0.0000	0.0000	0.0000	0.0000;
	103	1	22	5.5	0	0	1	1.02606	30.3032	0	1	1.1	0.9	0.0000	0.0000	0.0000	0.0000;
	104	2	0	0	0	0	1	1.03	30.906	0	1	1.1	0.9	0.0000	0.0000	0.0000	0.0000;
	105	1	0	0	0	0	1	1.05746	28.977	0	1	1.1	0.9	0.0000	0.0000	0.0000	0.0000;
	106	1	4.8	1.2	0	0	1	1.03222	23.5124	0	1	1.1	0.9	0.0000	0.0000	0.0000	0.0000;
	107	2	0	0	0	0	1	1.03	8.4015	0	1	1.1	0.9	0.0000	0.0000	0.0000	0.0000;
	108	2	63.4	20.3	0	5.4	1	1.03	6.8299	0	1	1.1	0.9	0.0000	0.0000	0.0000	0.0000;
	109	2	66.8	22.5	0	0	1	1.03	13.5192	0	1	1.1	0.9	0.0000	0.0000	0.0000	0.0000;
	110	1	0	0	0	0	1	1.01804	10.009	0	1	1.1	0.9	0.0000	0.0000	0.0000	0.0000;
	111	1	55	18.6	0	0	1	1.03002	4.2739	0	1	1.1	0.9	0.0000	0.0000	0.0000	0.0000;
	112	1	0	0	0	0	1	1.02032	10.7686	0	1	1.1	0.9	0.0000	0.0000	0.0000	0.0000;
	113	1	31.5	10.5	0	0	1	1.0298	0.3522	0	1	1.1	0.9	0.0000	0.0000	0.0000	0.0000;
	114	1	26.1	8.9	0	0	1	1.02474	7.5615	0	1	1.1	0.9	0.0000	0.0000	0.0000	0.0000;
	115	2	30.3	10.1	0	0	1	1.03	10.5585	0	1	1.1	0.9	0.0000	0.0000	0.0000	0.0000;
	116	1	0	0	0	0	1	0.96012	-6.0833	0	1	1.1	0.9	0.0000	0.0000	0.0000	0.0000;
	117	2	49.9	16.9	0	0	1	1.00283	2.1456	0	1	1.1	0.9	0.0000	0.0000	0.0000	0.0000;
	118	2	43.4	14.1	0	0	1	1.02957	-4.1857	0	1	1.1	0.9	0.0000	0.0000	0.0000	0.0000;
	119	1	16.4	5.5	0	0	1	0.99967	-2.7425	0	1	1.1	0.9	0.0000	0.0000	0.0000	0.0000;
	120	1	0	0	0	0	1	1.01406	-3.8772	0	1	1.1	0.9	0.0000	0.0000	0.0000	0.0000;
	121	1	0	0	0	0	1	1.01759	-4.4565	0	1	1.1	0.9	0.0000	0.0000	0.0000	0.0000;
	122	2	1.7	0.5	0	0	1	1.02855	-2.6848	0	1	1.1	0.9	0.0000	0.0000	0.0000	0.0000;
	123	1	14.3	4.8	0	0	1	1.05404	1.5862	0	1	1.1	0.9	0.0000	0.0000	0.0000	0.0000;
	124	1	0	0	0	0	1	1.01271	9.9772	0	1	1.1	0.9	0.0000	0.0000	0.0000	0.0000;
	125	1	0	0	0	0	1	1.00001	2.4479	0	1	1.1	0.9	0.0000	0.0000	0.0000	0.0000;
	126	1	0	0	0	0	1	0.9631	-1.7632	0	1	1.1	0.9	0.0000	0.0000	0.0000	0.0000;
	127	1	0.9	0	0	0	1	1.02951	10.7873	0	1	1.1	0.9	0.0000	0.0000	0.0000	0.0000;
	128	2	17.8	5.1	0	0	1	0.99652	9.2627	0	1	1.1	0.9	0.0000	0.0000	0.0000	0.0000;
	129	1	40.1	11.4	0	0	1	1.01126	9.5562	0	1	1.1	0.9	0.0000	0.0000	0.0000	0.0000;
	130	1	0	0	0	-50	1	1.01548	13.4921	0	1	1.1	0.9	0.0000	0.0000	0.0000	0.0000;
	131	2	35.8	9.1	0	5.4	1	1.03	9.8175	0	1	1.1	0.9	0.0000	0.0000	0.0000	0.0000;
	132	1	23.1	6.4	0	0	1	0.99202	5.2141	0	1	1.1	0.9	0.0000	0.0000	0.0000	0.0000;
	133	2	77.5	20.9	0	20	1	1.00791	4.185	0	1	1.1	0.9	0.0000	0.0000	0.0000	0.0000;
	134	2	36	10.8	0	10	1	0.99906	2.8309	0	1	1.1	0.9	0.0000	0.0000	0.0000	0.0000;
	135	1	33.7	10.3	0	0	1	1.03032	8.1576	0	1	1.1	0.9	0.0000	0.0000	0.0000	0.0000;
	136	2	27	6.3	0	5	1	1.03	12.2534	0	1	1.1	0.9	0.0000	0.0000	0.0000	0.0000;
	137	2	76.5	22.5	0	5	1	1.02	9.8243	0	1	1.1	0.9	0.0000	0.0000	0.0000	0.0000;
	138	1	27	7.2	0	0	1	1.00598	3.8877	0	1	1.1	0.9	0.0000	0.0000	0.0000	0.0000;
	139	1	36	9	0	10	1	1.03026	8.2697	0	1	1.1	0.9	0.0000	0.0000	0.0000	0.0000;
	140	1	0	0	0	0	1	1.01821	11.9595	0	1	1.1	0.9	0.0000	0.0000	0.0000	0.0000;
	141	2	99	27	0	0	1	1.03	11.1447	0	1	1.1	0.9	0.0000	0.0000	0.0000	0.0000;
	142	1	0	0	0	-25	1	1.03072	10.9506	0	1	1.1	0.9	0.0000	0.0000	0.0000	0.0000;
	143	1	30.4	7.1	0	0	1	1.02267	9.8112	0	1	1.1	0.9	0.0000	0.0000	0.0000	0.0000;
	144	1	18.6	5.9	0	0	1	1.00201	9.0495	0	1	1.1	0.9	0.0000	0.0000	0.0000	0.0000;
	145	1	0	0	0	0	1	0.99204	9.3449	0	1	1.1	0.9	0.0000	0.0000	0.0000	0.0000;
	146	1	0	0	0	0	1	0.98522	10.0094	0	1	1.1	0.9	0.0000	0.0000	0.0000	0.0000;
	147	1	40.8	13.4	0	0	1	1.02074	14.3195	0	1	1.1	0.9	0.0000	0.0000	0.0000	0.0000;
	148	1	0	0	0	0	1	1.0097	8.4354	0	1	1.1	0.9	0.0000	0.0000	0.0000	0.0000;
	149	2	55	18.1	0	0	1	1.03434	32.2961	0	1	1.1	0.9	0.0000	0.0000	0.0000	0.0000;
	150	1	6.5	2.2	0	1.2	1	1.02313	12.8868	0	1	1.1	0.9	0.0000	0.0000	0.0000	0.0000;
	151	1	0	0	0	-100	1	1.03393	26.6956	0	1	1.1	0.9	0.0000	0.0000	0.0000	0.0000;
	152	1	2.7	0.9	0	0	1	1.05417	17.8224	0	1	1.1	0.9	0.0000	0.0000	0.0000	0.0000;
	153	1	6.5	2.2	0	0	1	1.04487	15.8651	0	1	1.1	0.9	0.0000	0.0000	0.0000	0.0000;
	154	1	11	3.6	0	0	1	1.04039	14.5448	0	1	1.1	0.9	0.0000	0.0000	0.0000	0.0000;
	155	1	8.5	2.8	0	0	1	1.04426	13.8289	0	1	1.1	0.9	0.0000	0.0000	0.0000	0.0000;
	156	1	7.5	2.4	0	0	1	1.04984	16.7539	0	1	1.1	0.9	0.0000	0.0000	0.0000	0.0000;
	157	1	4.4	1.4	0	0	1	1.05753	21.3622	0	1	1.1	0.9	0.0000	0.0000	0.0000	0.0000;
	158	1	3.9	1.3	0	0	1	1.05034	23.7094	0	1	1.1	0.9	0.0000	0.0000	0.0000	0.0000;
	159	1	3.7	1.2	0	0	1	1.04154	19.3194	0	1	1.1	0.9	0.0000	0.0000	0.0000	0.0000;
	160	1	21.4	7	0	0	1	1.04204	28.0569	0	1	1.1	0.9	0.0000	0.0000	0.0000	0.0000;
	161	1	0.5	0.2	0	0	1	1.03177	18.1149	0	1	1.1	0.9	0.0000	0.0000	0.0000	0.0000;
	162	1	0	0	0	0	1	1.0258	19.3908	0	1	1.1	0.9	0.0000	0.0000	0.0000	0.0000;
	163	1	1	0.4	0	-16.5	1	1.02503	17.3405	0	1	1.1	0.9	0.0000	0.0000	0.0000	0.0000;
	164	2	0	0	0	0	1	1.045	28.9972	0	1	1.1	0.9	0.0000	0.0000	0.0000	0.0000;
	165	1	6	2	0	0	1	1.01059	15.96	0	1	1.1	0.9	0.0000	0.0000	0.0000	0.0000;
	166	1	7.7	2.5	0	0	1	1.02097	22.0071	0	1	1.1	0.9	0.0000	0.0000	0.0000	0.0000;
	167	2	75.3	24.8	0	0	1	1	14.9456	0	1	1.1	0.9	0.0000	0.0000	0.0000	0.0000;
	168	1	9.5	3.1	0	0	1	1.00724	17.6173	0	1	1.1	0.9	0.0000	0.0000	0.0000	0.0000;
	169	1	4.8	1.5	0	0	1	1.00323	15.6817	0	1	1.1	0.9	0.0000	0.0000	0.0000	0.0000;
	170	2	0	0	0	0	1	1.03	78.8283	0	1	1.1	0.9	0.0000	0.0000	0.0000	0.0000;
	171	2	11	3.6	0	3	1	1.0751	20.0056	0	1	1.1	0.9	0.0000	0.0000	0.0000	0.0000;
	172	1	0	0	0	0	1	1.00663	13.9791	0	1	1.1	0.9	0.0000	0.0000	0.0000	0.0000;
	173	1	35.8	11.8	0	0	1	1.01549	11.1128	0	1	1.1	0.9	0.0000	0.0000	0.0000	0.0000;
	174	1	0	0	0	0	1	1.01264	14.9152	0	1	1.1	0.9	0.0000	0.0000	0.0000	0.0000;
	175	1	47.5	15.3	0	0	1	0.965	12.0117	0	1	1.1	0.9	0.0000	0.0000	0.0000	0.0000;
	176	1	0	0	0	0	1	1.02916	17.3206	0	1	1.1	0.9	0.0000	0.0000	0.0000	0.0000;
	177	2	0	0	0	0	1	1.03	13.6732	0	1	1.1	0.9	0.0000	0.0000	0.0000	0.0000;
	178	1	22.4	7.4	0	0	1	0.99821	10	0	1	1.1	0.9	0.0000	0.0000	0.0000	0.0000;
	179	1	35.2	11.5	0	1.7	1	1.03452	21.3517	0	1	1.1	0.9	0.0000	0.0000	0.0000	0.0000;
	180	1	0	0	0	0	1	1.02935	24.9254	0	1	1.1	0.9	0.0000	0.0000	0.0000	0.0000;
	181	2	0	0	0	0	1	1.06165	19.4692	0	1	1.1	0.9	0.0000	0.0000	0.0000	0.0000;
	182	2	0	0	0	0	1	1.04161	21.3538	0	1	1.1	0.9	0.0000	0.0000	0.0000	0.0000;
	183	2	16.4	5.4	0	0	1	1.05876	18.7985	0	1	1.1	0.9	0.0000	0.0000	0.0000	0.0000;
	184	1	18.4	6	0	0	1	1.06738	21.2029	0	1	1.1	0.9	0.0000	0.0000	0.0000	0.0000;
	185	1	0	0	0	0	1	1.04698	24.3343	0	1	1.1	0.9	0.0000	0.0000	0.0000	0.0000;
	186	1	11	3.4	0	0	1	1.03135	21.4556	0	1	1.1	0.9	0.0000	0.0000	0.0000	0.0000;
	187	2	32.6	10.7	0	2.7	1	1.02723	20.2693	0	1	1.1	0.9	0.0000	0.0000	0.0000	0.0000;
	188	2	8.4	2.8	0	0	1	1.05326	26.0007	0	1	1.1	0.9	0.0000	0.0000	0.0000	0.0000;
	189	2	0	0	0	0	1	1.045	28.6178	0	1	1.1	0.9	0.0000	0.0000	0.0000	0.0000;
	190	1	16.2	4.4	0	0	1	1.00271	31.3526	0	1	1.1	0.9	0.0000	0.0000	0.0000	0.0000;
	191	1	11.2	3.7	0	0	1	1.02516	23.2873	0	1	1.1	0.9	0.0000	0.0000	0.0000	0.0000;
	192	1	12	0.1	0	0	1	1.0399	22.5635	0	1	1.1	0.9	0.0000	0.0000	0.0000	0.0000;
	193	2	25.2	8.3	0	0	1	1.0222	25.4644	0	1	1.1	0.9	0.0000	0.0000	0.0000	0.0000;
	194	1	46.1	14.5	0	0	1	1.04675	41.0835	0	1	1.1	0.9	0.0000	0.0000	0.0000	0.0000;
	195	1	0	0	0	0	1	1.03389	40.682	0	1	1.1	0.9	0.0000	0.0000	0.0000	0.0000;
	196	2	0	0	0	0	1	1.04	47.2533	0	1	1.1	0.9	0.0000	0.0000	0.0000	0.0000;
	197	2	0	0	0	0	1	1.03	46.0774	0	1	1.1	0.9	0.0000	0.0000	0.0000	0.0000;
	198	1	15.1	4.6	0	0	1	1.01668	37.222	0	1	1.1	0.9	0.0000	0.0000	0.0000	0.0000;
	199	1	5.9	1.5	0	10.8	1	1.03641	26.5701	0	1	1.1	0.9	0.0000	0.0000	0.0000	0.0000;
	200	1	13.4	4	0	0	1	1.05945	29.9595	0	1	1.1	0.9	0.0000	0.0000	0.0000	0.0000;
...
];

%%%% branch data
%%	fbus	tbus	r	x	b	rateA	rateB	rateC	ratio	angle	status	angmin	angmax	Pf	Qf	Pt	Qt	mu_Sf	mu_St	mu_angmin	mu_angmax
mpc.branch = [
	1	130	0.006	0.0589	0.93199	480	0	0	1	0	1	-360	360	0.0000	0.0000	0.0000	0.0000	0.0000	0.0000	0.0000	0.0000;
	1	460	0.003	0.0322	0.50388	480	0	0	1	0	1	-360	360	0.0000	0.0000	0.0000	0.0000	0.0000	0.0000	0.0000	0.0000;
	3	4	0.0462	0.1763	0.08013	223	0	0	1	0	1	-360	360	0.0000	0.0000	0.0000	0.0000	0.0000	0.0000	0.0000	0.0000;
	3	17	0.0061	0.0292	0.0151	240	0	0	1	0	1	-360	360	0.0000	0.0000	0.0000	0.0000	0.0000	0.0000	0.0000	0.0000;
	3	147	0.0005	0.0026	0.0023	334	0	0	1	0	1	-360	360	0.0000	0.0000	0.0000	0.0000	0.0000	0.0000	0.0000	0.0000;
	3	271	0.0153	0.0671	0.03127	290	0	0	1	0	1	-360	360	0.0000	0.0000	0.0000	0.0000	0.0000	0.0000	0.0000	0.0000;
	4	20	0.0272	0.1037	0.04714	112	0	0	1	0	1	-360	360	0.0000	0.0000	0.0000	0.0000	0.0000	0.0000	0.0000	0.0000;
	4	148	0.0241	0.1266	0.0599	167	0	0	1	0	1	-360	360	0.0000	0.0000	0.0000	0.0000	0.0000	0.0000	0.0000	0.0000;
	5	7	0.0397	0.1517	0.06899	202	0	0	1	0	1	-360	360	0.0000	0.0000	0.0000	0.0000	0.0000	0.0000	0.0000	0.0000;
	5	14	0.0235	0.0896	0.04072	167	0	0	1	0	1	-360	360	0.0000	0.0000	0.0000	0.0000	0.0000	0.0000	0.0000	0.0000;
	5	134	0.0298	0.114	0.05181	112	0	0	1	0	1	-360	360	0.0000	0.0000	0.0000	0.0000	0.0000	0.0000	0.0000	0.0000;
	6	10	0.037	0.082	0.0058	126	0	0	1	0	1	-360	360	0.0000	0.0000	0.0000	0.0000	0.0000	0.0000	0.0000	0.0000;
	6	11	0.0255	0.1332	0.0039	89	0	0	1	0	1	-360	360	0.0000	0.0000	0.0000	0.0000	0.0000	0.0000	0.0000	0.0000;
	7	9	0.004	0.019	0.01008	223	0	0	1	0	1	-360	360	0.0000	0.0000	0.0000	0.0000	0.0000	0.0000	0.0000	0.0000;
	7	13	0.0255	0.1332	0.06341	111	0	0	1	0	1	-360	360	0.0000	0.0000	0.0000	0.0000	0.0000	0.0000	0.0000	0.0000;
	7	139	0.0188	0.0717	0.03258	224	0	0	1	0	1	-360	360	0.0000	0.0000	0.0000	0.0000	0.0000	0.0000	0.0000	0.0000;
	8	21	0.0055	0.0263	0.01351	223	0	0	1	0	1	-360	360	0.0000	0.0000	0.0000	0.0000	0.0000	0.0000	0.0000	0.0000;
	8	41	0.021	0.141	0.07066	334	0	0	1	0	1	-360	360	0.0000	0.0000	0.0000	0.0000	0.0000	0.0000	0.0000	0.0000;
	8	139	0.0172	0.085	0.04046	167	0	0	1	0	1	-360	360	0.0000	0.0000	0.0000	0.0000	0.0000	0.0000	0.0000	0.0000;
	9	21	0.0055	0.0263	0.01351	223	0	0	1	0	1	-360	360	0.0000	0.0000	0.0000	0.0000	0.0000	0.0000	0.0000	0.0000;
	11	12	0.394	0.595	0	0	0	0	1	0	1	-360	360	0.0000	0.0000	0.0000	0.0000	0.0000	0.0000	0.0000	0.0000;
	11	250	0.1176	0.424	0	0	0	0	1	0	1	-360	360	0.0000	0.0000	0.0000	0.0000	0.0000	0.0000	0.0000	0.0000;
	12	250	0.3429	0.6882	0.0122	41	0	0	1	0	1	-360	360	0.0000	0.0000	0.0000	0.0000	0.0000	0.0000	0.0000	0.0000;
	12	258	0.4292	0.5916	0.00954	28	0	0	1	0	1	-360	360	0.0000	0.0000	0.0000	0.0000	0.0000	0.0000	0.0000	0.0000;
	13	134	0.0217	0.1075	0.05115	224	0	0	1	0	1	-360	360	0.0000	0.0000	0.0000	0.0000	0.0000	0.0000	0.0000	0.0000;
	14	16	0.0096	0.0366	0.01664	167	0	0	1	0	1	-360	360	0.0000	0.0000	0.0000	0.0000	0.0000	0.0000	0.0000	0.0000;
	15	265	0.349	0.5209	0.00873	36	0	0	1	0	1	-360	360	0.0000	0.0000	0.0000	0.0000	0.0000	0.0000	0.0000	0.0000;
	15	270	0.1446	0.243	0.004	55	0	0	1	0	1	-360	360	0.0000	0.0000	0.0000	0.0000	0.0000	0.0000	0.0000	0.0000;
	16	83	0.0114	0.0434	0.01974	112	0	0	1	0	1	-360	360	0.0000	0.0000	0.0000	0.0000	0.0000	0.0000	0.0000	0.0000;
	16	269	0.0068	0.0358	0.01696	218	0	0	1	0	1	-360	360	0.0000	0.0000	0.0000	0.0000	0.0000	0.0000	0.0000	0.0000;
	17	271	0.0061	0.04	0.02133	305	0	0	1	0	1	-360	360	0.0000	0.0000	0.0000	0.0000	0.0000	0.0000	0.0000	0.0000;
	18	19	0.0304	0.1506	0.07167	167	0	0	1	0	1	-360	360	0.0000	0.0000	0.0000	0.0000	0.0000	0.0000	0.0000	0.0000;
	18	22	0.0211	0.1046	0.04978	100	0	0	1	0	1	-360	360	0.0000	0.0000	0.0000	0.0000	0.0000	0.0000	0.0000	0.0000;
	19	271	0.0182	0.0933	0.04777	224	0	0	1	0	1	-360	360	0.0000	0.0000	0.0000	0.0000	0.0000	0.0000	0.0000	0.0000;
	20	83	0.0244	0.093	0.04229	112	0	0	1	0	1	-360	360	0.0000	0.0000	0.0000	0.0000	0.0000	0.0000	0.0000	0.0000;
	22	24	0.029	0.115	0.05399	112	0	0	1	0	1	-360	360	0.0000	0.0000	0.0000	0.0000	0.0000	0.0000	0.0000	0.0000;
	22	61	0.045	0.235	0.11418	84	0	0	1	0	1	-360	360	0.0000	0.0000	0.0000	0.0000	0.0000	0.0000	0.0000	0.0000;
	23	28	0.068	0.134	0.0141	60	0	0	1	0	1	-360	360	0.0000	0.0000	0.0000	0.0000	0.0000	0.0000	0.0000	0.0000;
	24	241	0.017	0.068	0.03209	112	0	0	1	0	1	-360	360	0.0000	0.0000	0.0000	0.0000	0.0000	0.0000	0.0000	0.0000;
	25	30	0.0153	0.0804	0.03832	223	0	0	1	0	1	-360	360	0.0000	0.0000	0.0000	0.0000	0.0000	0.0000	0.0000	0.0000;
	25	45	0.004	0.034	0.018	283	0	0	1	0	1	-360	360	0.0000	0.0000	0.0000	0.0000	0.0000	0.0000	0.0000	0.0000;
	25	77	0.014	0.093	0.04691	223	0	0	1	0	1	-360	360	0.0000	0.0000	0.0000	0.0000	0.0000	0.0000	0.0000	0.0000;
	26	27	0.131	0.421	0.05282	100	0	0	1	0	1	-360	360	0.0000	0.0000	0.0000	0.0000	0.0000	0.0000	0.0000	0.0000;
	26	32	0.134	0.311	0.03593	60	0	0	1	0	1	-360	360	0.0000	0.0000	0.0000	0.0000	0.0000	0.0000	0.0000	0.0000;
	26	46	0.011	0.056	0.00725	180	0	0	1	0	1	-360	360	0.0000	0.0000	0.0000	0.0000	0.0000	0.0000	0.0000	0.0000;
	26	49	0.0073	0.0439	0.00635	180	0	0	1	0	1	-360	360	0.0000	0.0000	0.0000	0.0000	0.0000	0.0000	0.0000	0.0000;
	27	28	0.181	0.357	0.03757	60	0	0	1	0	1	-360	360	0.0000	0.0000	0.0000	0.0000	0.0000	0.0000	0.0000	0.0000;
	27	36	0.069	0.162	0.01852	97	0	0	1	0	1	-360	360	0.0000	0.0000	0.0000	0.0000	0.0000	0.0000	0.0000	0.0000;
	27	49	0.2054	0.406	0.04031	72	0	0	1	0	1	-360	360	0.0000	0.0000	0.0000	0.0000	0.0000	0.0000	0.0000	0.0000;
	27	59	0.074	0.1415	0.0143	60	0	0	1	0	1	-360	360	0.0000	0.0000	0.0000	0.0000	0.0000	0.0000	0.0000	0.0000;
	29	30	0.015	0.061	0.02862	80	0	0	1	0	1	-360	360	0.0000	0.0000	0.0000	0.0000	0.0000	0.0000	0.0000	0.0000;
	29	31	0.013	0.05	0.0237	112	0	0	1	0	1	-360	360	0.0000	0.0000	0.0000	0.0000	0.0000	0.0000	0.0000	0.0000;
	31	80	0.0127	0.051	0.0245	223	0	0	1	0	1	-360	360	0.0000	0.0000	0.0000	0.0000	0.0000	0.0000	0.0000	0.0000;
	31	141	0.0188	0.0751	0.0349	167	0	0	1	0	1	-360	360	0.0000	0.0000	0.0000	0.0000	0.0000	0.0000	0.0000	0.0000;
	33	62	0.0239	0.1142	0.0543	217	0	0	1	0	1	-360	360	0.0000	0.0000	0.0000	0.0000	0.0000	0.0000	0.0000	0.0000;
	33	67	0.0141	0.0658	0.03275	217	0	0	1	0	1	-360	360	0.0000	0.0000	0.0000	0.0000	0.0000	0.0000	0.0000	0.0000;
	34	69	0.1576	0.3787	0.0067	63	0	0	1	0	1	-360	360	0.0000	0.0000	0.0000	0.0000	0.0000	0.0000	0.0000	0.0000;
	34	70	0.1768	0.4215	0.0076	63	0	0	1	0	1	-360	360	0.0000	0.0000	0.0000	0.0000	0.0000	0.0000	0.0000	0.0000;
	35	36	0.062	0.145	0.01664	60	0	0	1	0	1	-360	360	0.0000	0.0000	0.0000	0.0000	0.0000	0.0000	0.0000	0.0000;
	35	263	0.0295	0.0846	0.00995	31	0	0	1	0	1	-360	360	0.0000	0.0000	0.0000	0.0000	0.0000	0.0000	0.0000	0.0000;
	37	137	0.0239	0.125	0.0596	84	0	0	1	0	1	-360	360	0.0000	0.0000	0.0000	0.0000	0.0000	0.0000	0.0000	0.0000;
	37	139	0.014	0.054	0.025	112	0	0	1	0	1	-360	360	0.0000	0.0000	0.0000	0.0000	0.0000	0.0000	0.0000	0.0000;
	38	46	0.132	0.265	0.02832	68	0	0	1	0	1	-360	360	0.0000	0.0000	0.0000	0.0000	0.0000	0.0000	0.0000	0.0000;
	39	142	0.0137	0.0725	0.034	220	0	0	1	0	1	-360	360	0.0000	0.0000	0.0000	0.0000	0.0000	0.0000	0.0000	0.0000;
	39	148	0.0108	0.057	0.0272	220	0	0	1	0	1	-360	360	0.0000	0.0000	0.0000	0.0000	0.0000	0.0000	0.0000	0.0000;
	40	267	0.207	0.297	0.0046	37	0	0	1	0	1	-360	360	0.0000	0.0000	0.0000	0.0000	0.0000	0.0000	0.0000	0.0000;
	41	45	0.006	0.053	0.0286	283	0	0	1	0	1	-360	360	0.0000	0.0000	0.0000	0.0000	0.0000	0.0000	0.0000	0.0000;
	42	76	0.0024	0.0222	0.00371	500	0	0	1	0	1	-360	360	0.0000	0.0000	0.0000	0.0000	0.0000	0.0000	0.0000	0.0000;
	42	140	0.002	0.0186	0.38	500	0	0	1	0	1	-360	360	0.0000	0.0000	0.0000	0.0000	0.0000	0.0000	0.0000	0.0000;
	43	44	0.0051	0.0305	0.00441	180	0	0	1	0	1	-360	360	0.0000	0.0000	0.0000	0.0000	0.0000	0.0000	0.0000	0.0000;
	43	46	0.0053	0.0335	0.00437	180	0	0	1	0	1	-360	360	0.0000	0.0000	0.0000	0.0000	0.0000	0.0000	0.0000	0.0000;
	44	49	0.0045	0.028	0.00377	180	0	0	1	0	1	-360	360	0.0000	0.0000	0.0000	0.0000	0.0000	0.0000	0.0000	0.0000;
	47	134	0.0097	0.051	0.02431	218	0	0	1	0	1	-360	360	0.0000	0.0000	0.0000	0.0000	0.0000	0.0000	0.0000	0.0000;
	48	50	0.19	0.37	0.00758	55	0	0	1	0	1	-360	360	0.0000	0.0000	0.0000	0.0000	0.0000	0.0000	0.0000	0.0000;
	48	66	0.17	0.32	0.00669	55	0	0	1	0	1	-360	360	0.0000	0.0000	0.0000	0.0000	0.0000	0.0000	0.0000	0.0000;
	51	52	0.053	0.165	0.073	112	0	0	1	0	1	-360	360	0.0000	0.0000	0.0000	0.0000	0.0000	0.0000	0.0000	0.0000;
	51	53	0.023	0.099	0.046	112	0	0	1	0	1	-360	360	0.0000	0.0000	0.0000	0.0000	0.0000	0.0000	0.0000	0.0000;
	51	459	0.0082	0.0279	0.01228	167	0	0	1	0	1	-360	360	0.0000	0.0000	0.0000	0.0000	0.0000	0.0000	0.0000	0.0000;
	52	146	0.042	0.13	0.057	112	0	0	1	0	1	-360	360	0.0000	0.0000	0.0000	0.0000	0.0000	0.0000	0.0000	0.0000;
	52	1324	0.0289	0.0892	0.03944	167	0	0	1	0	1	-360	360	0.0000	0.0000	0.0000	0.0000	0.0000	0.0000	0.0000	0.0000;
	53	54	0.061	0.255	0.119	112	0	0	1	0	1	-360	360	0.0000	0.0000	0.0000	0.0000	0.0000	0.0000	0.0000	0.0000;
	54	73	0.0427	0.1329	0.05834	167	0	0	1	0	1	-360	360	0.0000	0.0000	0.0000	0.0000	0.0000	0.0000	0.0000	0.0000;
	54	83	0.082	0.253	0.112	112	0	0	1	0	1	-360	360	0.0000	0.0000	0.0000	0.0000	0.0000	0.0000	0.0000	0.0000;
	54	146	0.054	0.168	0.074	112	0	0	1	0	1	-360	360	0.0000	0.0000	0.0000	0.0000	0.0000	0.0000	0.0000	0.0000;
	55	76	0.006	0.0577	0.92899	478	0	0	1	0	1	-360	360	0.0000	0.0000	0.0000	0.0000	0.0000	0.0000	0.0000	0.0000;
	55	1586	0.0078	0.074	1.19199	478	0	0	1	0	1	-360	360	0.0000	0.0000	0.0000	0.0000	0.0000	0.0000	0.0000	0.0000;
	56	57	0.198	0.329	0.005	42	0	0	1	0	1	-360	360	0.0000	0.0000	0.0000	0.0000	0.0000	0.0000	0.0000	0.0000;
	56	65	0.564	0.959	0.015	42	0	0	1	0	1	-360	360	0.0000	0.0000	0.0000	0.0000	0.0000	0.0000	0.0000	0.0000;
	57	58	0.674	0.742	0.01	27	0	0	1	0	1	-360	360	0.0000	0.0000	0.0000	0.0000	0.0000	0.0000	0.0000	0.0000;
	57	60	0.157	0.261	0.004	42	0	0	1	0	1	-360	360	0.0000	0.0000	0.0000	0.0000	0.0000	0.0000	0.0000	0.0000;
	58	68	0.07	0.109	0.006	86	0	0	1	0	1	-360	360	0.0000	0.0000	0.0000	0.0000	0.0000	0.0000	0.0000	0.0000;
	58	70	0.5727	0.938	0.0149	41	0	0	1	0	1	-360	360	0.0000	0.0000	0.0000	0.0000	0.0000	0.0000	0.0000	0.0000;
	58	72	0.238	0.393	0.00708	43	0	0	1	0	1	-360	360	0.0000	0.0000	0.0000	0.0000	0.0000	0.0000	0.0000	0.0000;
	60	72	0.4692	0.8729	0.00928	43	0	0	1	0	1	-360	360	0.0000	0.0000	0.0000	0.0000	0.0000	0.0000	0.0000	0.0000;
	62	63	0.0041	0.0194	0.037	224	0	0	1	0	1	-360	360	0.0000	0.0000	0.0000	0.0000	0.0000	0.0000	0.0000	0.0000;
	62	74	0.0183	0.0804	0.0374	224	0	0	1	0	1	-360	360	0.0000	0.0000	0.0000	0.0000	0.0000	0.0000	0.0000	0.0000;
	62	1132	0.009	0.0394	0.0186	167	0	0	1	0	1	-360	360	0.0000	0.0000	0.0000	0.0000	0.0000	0.0000	0.0000	0.0000;
	64	75	0.1803	0.3013	0.01751	43	0	0	1	0	1	-360	360	0.0000	0.0000	0.0000	0.0000	0.0000	0.0000	0.0000	0.0000;
	64	1130	0.06	0.1477	0.0171	94	0	0	1	0	1	-360	360	0.0000	0.0000	0.0000	0.0000	0.0000	0.0000	0.0000	0.0000;
	64	1131	0.0694	0.287	0.0048	48	0	0	1	0	1	-360	360	0.0000	0.0000	0.0000	0.0000	0.0000	0.0000	0.0000	0.0000;
	65	66	0.41	0.941	0.0163	63	0	0	1	0	1	-360	360	0.0000	0.0000	0.0000	0.0000	0.0000	0.0000	0.0000	0.0000;
	65	68	0.287	0.622	0.01046	43	0	0	1	0	1	-360	360	0.0000	0.0000	0.0000	0.0000	0.0000	0.0000	0.0000	0.0000;
	67	71	0.016	0.0765	0.0364	180	0	0	1	0	1	-360	360	0.0000	0.0000	0.0000	0.0000	0.0000	0.0000	0.0000	0.0000;
	68	69	0.076	0.154	0.011	86	0	0	1	0	1	-360	360	0.0000	0.0000	0.0000	0.0000	0.0000	0.0000	0.0000	0.0000;
	70	75	0.226	0.529	0.01013	36	0	0	1	0	1	-360	360	0.0000	0.0000	0.0000	0.0000	0.0000	0.0000	0.0000	0.0000;
	70	78	0.26	0.353	0.00504	37	0	0	1	0	1	-360	360	0.0000	0.0000	0.0000	0.0000	0.0000	0.0000	0.0000	0.0000;
	71	930	0.0202	0.1191	0.05876	180	0	0	1	0	1	-360	360	0.0000	0.0000	0.0000	0.0000	0.0000	0.0000	0.0000	0.0000;
	73	77	0.0613	0.1891	0.08366	112	0	0	1	0	1	-360	360	0.0000	0.0000	0.0000	0.0000	0.0000	0.0000	0.0000	0.0000;
	74	82	0.0087	0.0382	0.0178	223	0	0	1	0	1	-360	360	0.0000	0.0000	0.0000	0.0000	0.0000	0.0000	0.0000	0.0000;
	74	86	0.3318	0.6059	0	50	0	0	1	0	1	-360	360	0.0000	0.0000	0.0000	0.0000	0.0000	0.0000	0.0000	0.0000;
	76	87	0.002	0.0222	0.3782	956	0	0	1	0	1	-360	360	0.0000	0.0000	0.0000	0.0000	0.0000	0.0000	0.0000	0.0000;
	76	929	0.0066	0.0607	1.027	717	0	0	1	0	1	-360	360	0.0000	0.0000	0.0000	0.0000	0.0000	0.0000	0.0000	0.0000;
	77	80	0.0227	0.1333	0.066	223	0	0	1	0	1	-360	360	0.0000	0.0000	0.0000	0.0000	0.0000	0.0000	0.0000	0.0000;
	79	81	0.0067	0.057	0.0302	223	0	0	1	0	1	-360	360	0.0000	0.0000	0.0000	0.0000	0.0000	0.0000	0.0000	0.0000;
	79	84	0.0033	0.0272	0.015	223	0	0	1	0	1	-360	360	0.0000	0.0000	0.0000	0.0000	0.0000	0.0000	0.0000	0.0000;
	79	88	0.0083	0.05	0.0249	167	0	0	1	0	1	-360	360	0.0000	0.0000	0.0000	0.0000	0.0000	0.0000	0.0000	0.0000;
	80	81	0.0075	0.033	0.015	210	0	0	1	0	1	-360	360	0.0000	0.0000	0.0000	0.0000	0.0000	0.0000	0.0000	0.0000;
	80	84	0.0145	0.045	0.02	167	0	0	1	0	1	-360	360	0.0000	0.0000	0.0000	0.0000	0.0000	0.0000	0.0000	0.0000;
	80	86	0.1744	0.4553	0	0	0	0	1	0	1	-360	360	0.0000	0.0000	0.0000	0.0000	0.0000	0.0000	0.0000	0.0000;
	81	82	0.0182	0.0802	0.0371	223	0	0	1	0	1	-360	360	0.0000	0.0000	0.0000	0.0000	0.0000	0.0000	0.0000	0.0000;
	81	1129	0.0294	0.1277	0.049	189	0	0	1	0	1	-360	360	0.0000	0.0000	0.0000	0.0000	0.0000	0.0000	0.0000	0.0000;
	82	86	0.0172	0.2048	0	60	0	0	1	0	1	-360	360	0.0000	0.0000	0.0000	0.0000	0.0000	0.0000	0.0000	0.0000;
	85	641	0.0008	0.0091	0.1439	956	0	0	1	0	1	-360	360	0.0000	0.0000	0.0000	0.0000	0.0000	0.0000	0.0000	0.0000;
	87	641	0.0012	0.0133	0.2249	956	0	0	1	0	1	-360	360	0.0000	0.0000	0.0000	0.0000	0.0000	0.0000	0.0000	0.0000;
	88	127	0.005	0.0273	0.0106	167	0	0	1	0	1	-360	360	0.0000	0.0000	0.0000	0.0000	0.0000	0.0000	0.0000	0.0000;
	89	92	0.0081	0.0502	0.11098	398	0	0	1	0	1	-360	360	0.0000	0.0000	0.0000	0.0000	0.0000	0.0000	0.0000	0.0000;
	89	94	0.0057	0.0353	0.07796	240	0	0	1	0	1	-360	360	0.0000	0.0000	0.0000	0.0000	0.0000	0.0000	0.0000	0.0000;
	89	104	0.0141	0.099	0.20601	291	0	0	1	0	1	-360	360	0.0000	0.0000	0.0000	0.0000	0.0000	0.0000	0.0000	0.0000;
	90	199	0.0094	0.0291	0.0036	120	0	0	1	0	1	-360	360	0.0000	0.0000	0.0000	0.0000	0.0000	0.0000	0.0000	0.0000;
	90	1639	0.1506	0.3438	0.03977	0	0	0	1	0	1	-360	360	0.0000	0.0000	0.0000	0.0000	0.0000	0.0000	0.0000	0.0000;
	91	105	0.012	0.038	0.00471	120	0	0	1	0	1	-360	360	0.0000	0.0000	0.0000	0.0000	0.0000	0.0000	0.0000	0.0000;
	91	403	0.0448	0.0931	0.01077	60	0	0	1	0	1	-360	360	0.0000	0.0000	0.0000	0.0000	0.0000	0.0000	0.0000	0.0000;
	92	1647	0.0099	0.0665	0.124	200	0	0	1	0	1	-360	360	0.0000	0.0000	0.0000	0.0000	0.0000	0.0000	0.0000	0.0000;
	93	105	0.1477	0.3252	0.03805	120	0	0	1	0	1	-360	360	0.0000	0.0000	0.0000	0.0000	0.0000	0.0000	0.0000	0.0000;
	93	202	0.1135	0.2346	0.0274	40	0	0	1	0	1	-360	360	0.0000	0.0000	0.0000	0.0000	0.0000	0.0000	0.0000	0.0000;
	94	97	0.0062	0.0393	0.0733	320	0	0	1	0	1	-360	360	0.0000	0.0000	0.0000	0.0000	0.0000	0.0000	0.0000	0.0000;
	94	1633	0.0127	0.08	0.1183	160	0	0	1	0	1	-360	360	0.0000	0.0000	0.0000	0.0000	0.0000	0.0000	0.0000	0.0000;
	95	96	0.066	0.159	0.0168	100	0	0	1	0	1	-360	360	0.0000	0.0000	0.0000	0.0000	0.0000	0.0000	0.0000	0.0000;
	95	207	0.073	0.165	0.0194	60	0	0	1	0	1	-360	360	0.0000	0.0000	0.0000	0.0000	0.0000	0.0000	0.0000	0.0000;
	95	370	0.1295	0.2823	0.03272	80	0	0	1	0	1	-360	360	0.0000	0.0000	0.0000	0.0000	0.0000	0.0000	0.0000	0.0000;
	96	402	0.1077	0.2237	0.02587	100	0	0	1	0	1	-360	360	0.0000	0.0000	0.0000	0.0000	0.0000	0.0000	0.0000	0.0000;
	97	401	0.0065	0.0406	0.0897	320	0	0	1	0	1	-360	360	0.0000	0.0000	0.0000	0.0000	0.0000	0.0000	0.0000	0.0000;
	98	99	0.13	0.296	0.0394	97	0	0	1	0	1	-360	360	0.0000	0.0000	0.0000	0.0000	0.0000	0.0000	0.0000	0.0000;
	98	402	0.0268	0.0556	0.00643	96	0	0	1	0	1	-360	360	0.0000	0.0000	0.0000	0.0000	0.0000	0.0000	0.0000	0.0000;
	99	100	0.145	0.331	0.039	80	0	0	1	0	1	-360	360	0.0000	0.0000	0.0000	0.0000	0.0000	0.0000	0.0000	0.0000;
	99	102	0.103	0.236	0.0272	80	0	0	1	0	1	-360	360	0.0000	0.0000	0.0000	0.0000	0.0000	0.0000	0.0000	0.0000;
	99	1640	0.0633	0.2583	0.03135	144	0	0	1	0	1	-360	360	0.0000	0.0000	0.0000	0.0000	0.0000	0.0000	0.0000	0.0000;
	100	416	0.0763	0.2733	0.03461	80	0	0	1	0	1	-360	360	0.0000	0.0000	0.0000	0.0000	0.0000	0.0000	0.0000	0.0000;
	101	1636	0.0146	0.0908	0.01254	114	0	0	1	0	1	-360	360	0.0000	0.0000	0.0000	0.0000	0.0000	0.0000	0.0000	0.0000;
	101	1637	0.029	0.1134	0.01435	144	0	0	1	0	1	-360	360	0.0000	0.0000	0.0000	0.0000	0.0000	0.0000	0.0000	0.0000;
	101	1638	0.0289	0.1468	0.01903	144	0	0	1	0	1	-360	360	0.0000	0.0000	0.0000	0.0000	0.0000	0.0000	0.0000	0.0000;
	102	206	0.045	0.147	0.0181	60	0	0	1	0	1	-360	360	0.0000	0.0000	0.0000	0.0000	0.0000	0.0000	0.0000	0.0000;
	103	106	0.0087	0.0896	0.1836	519	0	0	1	0	1	-360	360	0.0000	0.0000	0.0000	0.0000	0.0000	0.0000	0.0000	0.0000;
	103	1632	0.0154	0.1586	0.32496	320	0	0	1	0	1	-360	360	0.0000	0.0000	0.0000	0.0000	0.0000	0.0000	0.0000	0.0000;
	104	193	0.0053	0.0471	0.10357	480	0	0	1	0	1	-360	360	0.0000	0.0000	0.0000	0.0000	0.0000	0.0000	0.0000	0.0000;
	106	1633	0.0052	0.0535	0.10957	519	0	0	1	0	1	-360	360	0.0000	0.0000	0.0000	0.0000	0.0000	0.0000	0.0000	0.0000;
	107	114	0.0235	0.0958	0.0434	111	0	0	1	0	1	-360	360	0.0000	0.0000	0.0000	0.0000	0.0000	0.0000	0.0000	0.0000;
	107	300	0.0303	0.1232	0.0621	111	0	0	1	0	1	-360	360	0.0000	0.0000	0.0000	0.0000	0.0000	0.0000	0.0000	0.0000;
	107	377	0.025	0.0674	0.0296	111	0	0	1	0	1	-360	360	0.0000	0.0000	0.0000	0.0000	0.0000	0.0000	0.0000	0.0000;
	109	110	0.0218	0.1139	0.0528	224	0	0	1	0	1	-360	360	0.0000	0.0000	0.0000	0.0000	0.0000	0.0000	0.0000	0.0000;
	109	112	0.047	0.194	0.0865	111	0	0	1	0	1	-360	360	0.0000	0.0000	0.0000	0.0000	0.0000	0.0000	0.0000	0.0000;
	109	124	0.022	0.0644	0.0285	162	0	0	1	0	1	-360	360	0.0000	0.0000	0.0000	0.0000	0.0000	0.0000	0.0000	0.0000;
	109	296	0.0142	0.0745	0.0354	153	0	0	1	0	1	-360	360	0.0000	0.0000	0.0000	0.0000	0.0000	0.0000	0.0000	0.0000;
	110	135	0.0196	0.1025	0.0474	224	0	0	1	0	1	-360	360	0.0000	0.0000	0.0000	0.0000	0.0000	0.0000	0.0000	0.0000;
	110	136	0.0355	0.144	0.0654	111	0	0	1	0	1	-360	360	0.0000	0.0000	0.0000	0.0000	0.0000	0.0000	0.0000	0.0000;
	112	137	0.0177	0.0697	0.03114	111	0	0	1	0	1	-360	360	0.0000	0.0000	0.0000	0.0000	0.0000	0.0000	0.0000	0.0000;
	114	135	0.0299	0.1217	0.0546	111	0	0	1	0	1	-360	360	0.0000	0.0000	0.0000	0.0000	0.0000	0.0000	0.0000	0.0000;
	116	279	0.1294	0.1188	0.00172	47	0	0	1	0	1	-360	360	0.0000	0.0000	0.0000	0.0000	0.0000	0.0000	0.0000	0.0000;
	116	287	0.2083	0.1973	0.0028	47	0	0	1	0	1	-360	360	0.0000	0.0000	0.0000	0.0000	0.0000	0.0000	0.0000	0.0000;
	118	120	0.0951	0.1592	0.00244	47	0	0	1	0	1	-360	360	0.0000	0.0000	0.0000	0.0000	0.0000	0.0000	0.0000	0.0000;
	118	121	0.0835	0.1432	0.00215	47	0	0	1	0	1	-360	360	0.0000	0.0000	0.0000	0.0000	0.0000	0.0000	0.0000	0.0000;
	119	120	0.1255	0.2227	0.00329	47	0	0	1	0	1	-360	360	0.0000	0.0000	0.0000	0.0000	0.0000	0.0000	0.0000	0.0000;
	119	289	0.2057	0.349	0.00535	47	0	0	1	0	1	-360	360	0.0000	0.0000	0.0000	0.0000	0.0000	0.0000	0.0000	0.0000;
	120	290	0.1715	0.1575	0.00228	31	0	0	1	0	1	-360	360	0.0000	0.0000	0.0000	0.0000	0.0000	0.0000	0.0000	0.0000;
	121	122	0.3657	0.6275	0.00935	47	0	0	1	0	1	-360	360	0.0000	0.0000	0.0000	0.0000	0.0000	0.0000	0.0000	0.0000;
	121	291	0.1098	0.1088	0.00197	31	0	0	1	0	1	-360	360	0.0000	0.0000	0.0000	0.0000	0.0000	0.0000	0.0000	0.0000;
	122	123	0.2317	0.3975	0.006	47	0	0	1	0	1	-360	360	0.0000	0.0000	0.0000	0.0000	0.0000	0.0000	0.0000	0.0000;
	122	281	0.0643	0.1211	0.00175	47	0	0	1	0	1	-360	360	0.0000	0.0000	0.0000	0.0000	0.0000	0.0000	0.0000	0.0000;
	124	296	0.003	0.0122	0.0055	200	0	0	1	0	1	-360	360	0.0000	0.0000	0.0000	0.0000	0.0000	0.0000	0.0000	0.0000;
	124	377	0.0347	0.0926	0.03984	211	0	0	1	0	1	-360	360	0.0000	0.0000	0.0000	0.0000	0.0000	0.0000	0.0000	0.0000;
	125	126	0.0276	0.112	0.0508	200	0	0	1	0	1	-360	360	0.0000	0.0000	0.0000	0.0000	0.0000	0.0000	0.0000	0.0000;
	125	300	0.0032	0.013	0.0059	200	0	0	1	0	1	-360	360	0.0000	0.0000	0.0000	0.0000	0.0000	0.0000	0.0000	0.0000;
	126	282	0.0284	0.1707	0.07132	214	0	0	1	0	1	-360	360	0.0000	0.0000	0.0000	0.0000	0.0000	0.0000	0.0000	0.0000;
	127	141	0.0015	0.0082	0.0038	224	0	0	1	0	1	-360	360	0.0000	0.0000	0.0000	0.0000	0.0000	0.0000	0.0000	0.0000;
	127	847	0.0046	0.0412	0.0048	168	0	0	1	0	1	-360	360	0.0000	0.0000	0.0000	0.0000	0.0000	0.0000	0.0000	0.0000;
	128	144	0.0202	0.0818	0.0372	112	0	0	1	0	1	-360	360	0.0000	0.0000	0.0000	0.0000	0.0000	0.0000	0.0000	0.0000;
	128	356	0.0239	0.0969	0.044	112	0	0	1	0	1	-360	360	0.0000	0.0000	0.0000	0.0000	0.0000	0.0000	0.0000	0.0000;
	129	142	0.0174	0.0511	0.023	111	0	0	1	0	1	-360	360	0.0000	0.0000	0.0000	0.0000	0.0000	0.0000	0.0000	0.0000;
	129	144	0.0165	0.0667	0.0303	112	0	0	1	0	1	-360	360	0.0000	0.0000	0.0000	0.0000	0.0000	0.0000	0.0000	0.0000;
	130	385	0.0071	0.0694	1.17499	600	0	0	1	0	1	-360	360	0.0000	0.0000	0.0000	0.0000	0.0000	0.0000	0.0000	0.0000;
	131	132	0.024	0.0965	0.0444	167	0	0	1	0	1	-360	360	0.0000	0.0000	0.0000	0.0000	0.0000	0.0000	0.0000	0.0000;
	131	142	0.0249	0.0725	0.0202	167	0	0	1	0	1	-360	360	0.0000	0.0000	0.0000	0.0000	0.0000	0.0000	0.0000	0.0000;
	132	133	0.038	0.15	0.0696	110	0	0	1	0	1	-360	360	0.0000	0.0000	0.0000	0.0000	0.0000	0.0000	0.0000	0.0000;
	132	333	0.0323	0.1185	0.05379	93	0	0	1	0	1	-360	360	0.0000	0.0000	0.0000	0.0000	0.0000	0.0000	0.0000	0.0000;
	133	135	0.0207	0.1088	0.052	225	0	0	1	0	1	-360	360	0.0000	0.0000	0.0000	0.0000	0.0000	0.0000	0.0000	0.0000;
	133	138	0.0249	0.1005	0.0458	111	0	0	1	0	1	-360	360	0.0000	0.0000	0.0000	0.0000	0.0000	0.0000	0.0000	0.0000;
	134	138	0.0114	0.0448	0.02078	167	0	0	1	0	1	-360	360	0.0000	0.0000	0.0000	0.0000	0.0000	0.0000	0.0000	0.0000;
	135	138	0.0234	0.122	0.0583	211	0	0	1	0	1	-360	360	0.0000	0.0000	0.0000	0.0000	0.0000	0.0000	0.0000	0.0000;
	137	143	0.0438	0.177	0.08056	110	0	0	1	0	1	-360	360	0.0000	0.0000	0.0000	0.0000	0.0000	0.0000	0.0000	0.0000;
	140	286	0.0038	0.0394	0.66999	480	0	0	1	0	1	-360	360	0.0000	0.0000	0.0000	0.0000	0.0000	0.0000	0.0000	0.0000;
...
];

%%%% generator data
%%	bus	Pg	Qg	Qmax	Qmin	Vg	mBase	status	Pmax	Pmin	mu_Pmax	mu_Pmin	mu_Qmax	mu_Qmin
mpc.gen = [
	4	19	2	2	-2	1.03	21.015	1	9999	-9999	0	0	0	0;
	6	72	15.774	37	-30	1.03	81.078	1	9999	-9999	0	0	0	0;
	15	8	2	2	-2	1.03	9.071	1	9999	-9999	0	0	0	0;
	18	8	3	3	-3	1.03	9.398	1	9999	-9999	0	0	0	0;
	21	0	0.1	0.1	-0.1	1.03	0.11	1	9999	-9999	0	0	0	0;
	26	213.1	-50.807	125.2	-101	1.05	240.981	1	9999	-9999	0	0	0	0;
	27	142	35.023	66.6	-49	1.05	160.88	1	9999	-9999	0	0	0	0;
	28	0	0.1	0.1	0	1.03	0.11	1	9999	-9999	0	0	0	0;
	41	400	15.519	200	-150	1.03	440.331	1	9999	-9999	0	0	0	0;
	44	13	-3.53	17	-13	1.05	14.818	1	9999	-9999	0	0	0	0;
	51	131	10.986	44	-32	1.03	144.605	1	9999	-9999	0	0	0	0;
	53	4.5	1.8	1.8	1.8	1.0147	5.331	1	9999	-9999	0	0	0	0;
	54	60.5	22	22	-25	1.03	70.813	1	9999	-9999	0	0	0	0;
	56	2	0	0	0	1.0223	2.2	1	9999	-9999	0	0	0	0;
	57	7.7	0	0	0	1.0093	8.47	1	9999	-9999	0	0	0	0;
	58	7.7	0	0	0	0.9884	8.47	1	9999	-9999	0	0	0	0;
	63	151.6	36.712	75	-50	1.03	171.578	1	9999	-9999	0	0	0	0;
	69	1	0	0	0	1.0106	1.1	1	9999	-9999	0	0	0	0;
	79	68.8	0	20.3	0	1.02	75.68	1	9999	-9999	0	0	0	0;
	80	80.2	-10	33.3	-10	1.02	88.903	1	9999	-9999	0	0	0	0;
	81	31.2	11.368	12.7	0	1.02	36.526	1	9999	-9999	0	0	0	0;
	84	70.8	24.7	24.7	0	1.03	82.483	1	9999	-9999	0	0	0	0;
	86	80	7.553	35	-20	1.03	88.391	1	9999	-9999	0	0	0	0;
	91	15	-6	9	-6	1.03	17.771	1	9999	-9999	0	0	0	0;
	96	98	-10.872	70	-55	1.03	108.462	1	9999	-9999	0	0	0	0;
	98	8	0	0	0	0.9988	8.8	1	9999	-9999	0	0	0	0;
	104	439	-28.404	220	-109	1.03	483.91	1	9999	-9999	0	0	0	0;
	107	130	29.288	62	-62	1.03	146.583	1	9999	-9999	0	0	0	0;
	108	46	7.907	25	-25	1.03	51.342	1	9999	-9999	0	0	0	0;
	109	347.3	21.427	174	-174	1.03	382.756	1	9999	-9999	0	0	0	0;
	115	28	0.615	14	-14	1.03	30.807	1	9999	-9999	0	0	0	0;
	117	2.6	0	0	0	1.0028	2.86	1	9999	-9999	0	0	0	0;
	118	0.8	0	0	0	1.0296	0.88	1	9999	-9999	0	0	0	0;
	122	12	6	6	-6	1.03	14.758	1	9999	-9999	0	0	0	0;
	128	4.5	1.8	1.8	1.8	0.9965	5.331	1	9999	-9999	0	0	0	0;
	131	100	29.679	30	-20	1.03	114.742	1	9999	-9999	0	0	0	0;
	133	7	0	0	0	1.0079	7.7	1	9999	-9999	0	0	0	0;
	134	8	0	0	0	0.9991	8.8	1	9999	-9999	0	0	0	0;
	136	56	-0.513	15	-10	1.03	61.603	1	9999	-9999	0	0	0	0;
	137	75	8.891	20	-15	1.02	83.078	1	9999	-9999	0	0	0	0;
	141	215	22.927	80	-50	1.03	237.84	1	9999	-9999	0	0	0	0;
	149	8	0	0	0	1.0343	8.8	1	9999	-9999	0	0	0	0;
	164	90	-44.31	35	-50	1.045	110.349	1	9999	-9999	0	0	0	0;
	167	0	3.112	10	-5	1	3.422	1	9999	-9999	0	0	0	0;
	170	100	-11.789	54	-56	1.03	110.762	1	9999	-9999	0	0	0	0;
	171	4	0	5.9	0	1.03	4.4	1	9999	-9999	0	0	0	0;
	177	68	-17.455	30	-40	1.03	77.226	1	9999	-9999	0	0	0	0;
	181	70	-20	30	-20	1.04	80.081	1	9999	-9999	0	0	0	0;
	182	140	-40	60	-40	1.03	160.162	1	9999	-9999	0	0	0	0;
	183	4	0	6	0	1.03	4.4	1	9999	-9999	0	0	0	0;
	187	0.5	0.4	0.4	0	1.03	0.704	1	9999	-9999	0	0	0	0;
	188	106.2	-36	48	-36	1.04	123.349	1	9999	-9999	0	0	0	0;
	189	270	-73.26	105	-150	1.045	307.74	1	9999	-9999	0	0	0	0;
	193	1	0.4	0.4	0.4	1.0222	1.185	1	9999	-9999	0	0	0	0;
	196	160	-41.002	70	-110	1.04	181.687	1	9999	-9999	0	0	0	0;
	197	240	-17.812	105	-165	1.03	264.727	1	9999	-9999	0	0	0	0;
	202	14.2	5.7	5.7	5.7	1.0116	16.831	1	9999	-9999	0	0	0	0;
	204	0	-25	60	-25	1.03	27.5	1	9999	-9999	0	0	0	0;
	206	20	0.312	10.5	-5	1.03	22.003	1	9999	-9999	0	0	0	0;
	211	10	0	0	0	0.9518	11	1	9999	-9999	0	0	0	0;
	214	60	-3.388	15	-15	1.03	66.105	1	9999	-9999	0	0	0	0;
	216	94	-8.186	20	-20	1.03	103.791	1	9999	-9999	0	0	0	0;
	217	44	20	20	-8	1.03	53.165	1	9999	-9999	0	0	0	0;
	219	24.7	0	0	0	1.0053	27.17	1	9999	-9999	0	0	0	0;
	226	2.1	0.8	0.8	0.8	1.047	2.472	1	9999	-9999	0	0	0	0;
	237	200	60	60	-40	1.04	229.687	1	9999	-9999	0	0	0	0;
	243	300	-5.466	175	-130	1.035	330.055	1	9999	-9999	0	0	0	0;
	253	39.9	12.394	22	-8.5	1.03	45.959	1	9999	-9999	0	0	0	0;
	265	25.9	18	18	-6	1.03	34.695	1	9999	-9999	0	0	0	0;
	271	443	30.73	229	-110	1.03	488.471	1	9999	-9999	0	0	0	0;
	272	2	0.7	0.7	0	1	2.331	1	9999	-9999	0	0	0	0;
	274	15.5	31.297	40	-12	1	38.417	1	9999	-9999	0	0	0	0;
	277	20	9	9	-3	1.029	24.125	1	9999	-9999	0	0	0	0;
	281	9.4	6	6	-1.6	1.015	12.267	1	9999	-9999	0	0	0	0;
	283	0.1	0	0	0	0.9744	0.11	1	9999	-9999	0	0	0	0;
	289	22	3	3	3	1.0323	24.424	1	9999	-9999	0	0	0	0;
	294	557	54.742	200	-85	1.01	615.651	1	9999	-9999	0	0	0	0;
	295	34	3	3	3	1.0301	37.545	1	9999	-9999	0	0	0	0;
	297	45	5	5	5	1.0272	49.805	1	9999	-9999	0	0	0	0;
	298	10.6	2	2	2	1.0363	11.866	1	9999	-9999	0	0	0	0;
	299	25	0	0	0	1.0436	27.5	1	9999	-9999	0	0	0	0;
	303	1040	-2.959	200	-170	1.02	1144.01	1	9999	-9999	0	0	0	0;
	314	540	82.861	150	-175	1.01	600.948	1	9999	-9999	0	0	0	0;
	327	179	-3.85	150	-100	1.043	196.946	1	9999	-9999	0	0	0	0;
	332	8	4	4	4	1.0149	9.839	1	9999	-9999	0	0	0	0;
	338	261	79.34	80	-60	1.043	300.065	1	9999	-9999	0	0	0	0;
	346	18	0	0	0	1.0418	19.8	1	9999	-9999	0	0	0	0;
	353	227	46.717	60	-30	1.043	254.927	1	9999	-9999	0	0	0	0;
	358	2.9	1.2	1.2	1.2	0.9857	3.452	1	9999	-9999	0	0	0	0;
	360	2.9	1.2	1.2	1.2	1.0134	3.452	1	9999	-9999	0	0	0	0;
	376	4	0	0	0	1.0399	4.4	1	9999	-9999	0	0	0	0;
	396	0	0.1	0.1	-0.1	1.03	0.11	1	9999	-9999	0	0	0	0;
	398	158	-79	79	-79	1.03	194.314	1	9999	-9999	0	0	0	0;
	410	5	2.5	2.5	2.5	1.0319	6.149	1	9999	-9999	0	0	0	0;
	417	10	0	0	0	0.9896	11	1	9999	-9999	0	0	0	0;
	418	3.5	3	3	3	0.9887	5.071	1	9999	-9999	0	0	0	0;
	419	3	11.1	11.1	1.5	1.015	12.648	1	9999	-9999	0	0	0	0;
	421	0	0	14	0	1.018	14	1	9999	-9999	0	0	0	0;
	425	120	0.55	40	-20	1.05	132.001	1	9999	-9999	0	0	0	0;
	426	41.5	8.034	33	0	1.01	46.497	1	9999	-9999	0	0	0	0;
	427	2.5	1.5	1.5	1.5	1.0075	3.207	1	9999	-9999	0	0	0	0;
	429	0	0	9	0	1.033	9	1	9999	-9999	0	0	0	0;
	430	0	11.672	14.4	0	1.024	12.832	1	9999	-9999	0	0	0	0;
	433	23.5	22.73	35	0	1.01	35.96	1	9999	-9999	0	0	0	0;
	434	7	3.5	3.5	3.5	1.0147	8.609	1	9999	-9999	0	0	0	0;
	440	4	8.7	8.7	8.7	1.0062	10.533	1	9999	-9999	0	0	0	0;
	444	-7	-1	-1	-1	1.0089	7.778	1	9999	-9999	0	0	0	0;
	445	100	-16.999	50	-20	1.015	111.579	1	9999	-9999	0	0	0	0;
	448	320	48.164	160	-80	1.05	355.964	1	9999	-9999	0	0	0	0;
	449	5	5	5	5	1.0027	7.778	1	9999	-9999	0	0	0	0;
	452	3.5	0	3	0	1.03	3.85	1	9999	-9999	0	0	0	0;
	454	6	0	5	0	1.03	6.6	1	9999	-9999	0	0	0	0;
	455	12	4.788	9.4	0	1.03	14.212	1	9999	-9999	0	0	0	0;
	456	0	0	0.1	0	1.03	0.1	1	9999	-9999	0	0	0	0;
	457	8	0	5.6	0	1.03	8.8	1	9999	-9999	0	0	0	0;
	459	207.2	180	180	-126	1.043	301.913	1	9999	-9999	0	0	0	0;
	460	455	23.119	288	-144	1.029	501.145	1	9999	-9999	0	0	0	0;
	462	170	-3.615	154	-20	1.043	187.042	1	9999	-9999	0	0	0	0;
	463	250	59.497	200	0	1.024	282.675	1	9999	-9999	0	0	0	0;
	471	236	80.651	157	-20	1.016	274.339	1	9999	-9999	0	0	0	0;
	479	447	29.095	260	-100	1.024	492.74	1	9999	-9999	0	0	0	0;
	488	99	2.87	76	0	1.012	108.945	1	9999	-9999	0	0	0	0;
	498	0	18.554	30	0	1	20.408	1	9999	-9999	0	0	0	0;
	507	0	15	15	0	1	16.5	1	9999	-9999	0	0	0	0;
	522	0	0	30	0	1	30	1	9999	-9999	0	0	0	0;
	525	0	17.431	30	0	1	19.173	1	9999	-9999	0	0	0	0;
	526	107	130	130	130	1.0351	185.209	1	9999	-9999	0	0	0	0;
	539	232	79.283	150	0	1.047	269.69	1	9999	-9999	0	0	0	0;
	540	741	217.894	410	0	1.047	849.604	1	9999	-9999	0	0	0	0;
	541	194	85.461	142	0	1.05	233.186	1	9999	-9999	0	0	0	0;
	542	95	38.605	120	0	1.044	112.795	1	9999	-9999	0	0	0	0;
	546	849.9	28.885	600	0	1.034	935.43	1	9999	-9999	0	0	0	0;
	547	50	120	120	0	1.04	143	1	9999	-9999	0	0	0	0;
	548	72	20.168	40	0	1.04	82.246	1	9999	-9999	0	0	0	0;
	549	45	20.469	40	0	1.04	54.377	1	9999	-9999	0	0	0	0;
	561	107	0	155	0	1.03	117.7	1	9999	-9999	0	0	0	0;
	562	0	0	35	0	1.03	35	1	9999	-9999	0	0	0	0;
	565	25	9	9	9	1.0184	29.228	1	9999	-9999	0	0	0	0;
	575	25	9	9	9	1.0167	29.228	1	9999	-9999	0	0	0	0;
	579	175	23.325	146	0	1.018	194.202	1	9999	-9999	0	0	0	0;
	580	114	28.36	100	-10	1.013	129.218	1	9999	-9999	0	0	0	0;
	581	49	6.578	38	0	1.048	54.383	1	9999	-9999	0	0	0	0;
	591	483	13.443	260	0	1.034	531.505	1	9999	-9999	0	0	0	0;
	602	179	46	46	46	1.0368	203.298	1	9999	-9999	0	0	0	0;
	629	107	0	0	0	1.03	117.7	1	9999	-9999	0	0	0	0;
	630	105	27.928	60	0	1.04	119.514	1	9999	-9999	0	0	0	0;
	639	1400	0	572	0	1.02	1540	1	9999	-9999	0	0	0	0;
	641	1520	286.447	464	0	1.04	1701.43	1	9999	-9999	0	0	0	0;
	642	-180	0	0	0	1.026	198	1	9999	-9999	0	0	0	0;
	647	100	45	45	0	1.02	120.624	1	9999	-9999	0	0	0	0;
	659	580	0	190	0	1.02	638	1	9999	-9999	0	0	0	0;
	660	250	33.259	120	0	1.02	277.421	1	9999	-9999	0	0	0	0;
	662	100	48	48	0	1.02	122.016	1	9999	-9999	0	0	0	0;
	679	140	0	0	0	1.0579	154	1	9999	-9999	0	0	0	0;
	681	154.6	52.095	115	0	1.015	179.453	1	9999	-9999	0	0	0	0;
	737	20	63.802	107	0	1.02	73.478	1	9999	-9999	0	0	0	0;
	748	110	0	62	0	1.015	121	1	9999	-9999	0	0	0	0;
	749	60	0	62	0	1.015	66	1	9999	-9999	0	0	0	0;
	752	300	0	139	0	1.015	330	1	9999	-9999	0	0	0	0;
	757	140	50.628	90	0	1.015	163.758	1	9999	-9999	0	0	0	0;
	758	180	0	0	0	1.0357	198	1	9999	-9999	0	0	0	0;
	765	230	0	0	0	1.0329	253	1	9999	-9999	0	0	0	0;
	766	-230	0	0	0	1.0162	253	1	9999	-9999	0	0	0	0;
	774	150	0	0	0	1.0432	165	1	9999	-9999	0	0	0	0;
	775	-150	0	0	0	1.017	165	1	9999	-9999	0	0	0	0;
	801	300	69.768	182	0	1.02	338.804	1	9999	-9999	0	0	0	0;
	805	150	0	0	0	1.0249	165	1	9999	-9999	0	0	0	0;
	807	-150	0	0	0	1.0246	165	1	9999	-9999	0	0	0	0;
	817	1080	34.045	252	0	1.04	1188.59	1	9999	-9999	0	0	0	0;
	830	180	0	0	0	1.0393	198	1	9999	-9999	0	0	0	0;
	831	-250	0	0	0	1.0259	275	1	9999	-9999	0	0	0	0;
	832	250	-23	-23	-23	1.0227	276.161	1	9999	-9999	0	0	0	0;
	833	50	0	0	0	1.0379	55	1	9999	-9999	0	0	0	0;
	835	0	5	5	5	1.0347	5.5	1	9999	-9999	0	0	0	0;
	840	180	49.209	90	0	1.02	205.262	1	9999	-9999	0	0	0	0;
	850	360	0	188	0	1.02	396	1	9999	-9999	0	0	0	0;
	851	360	0	164	0	1.02	396	1	9999	-9999	0	0	0	0;
	854	250	61.655	111	0	1.02	283.236	1	9999	-9999	0	0	0	0;
	859	135	25.85	84	0	1.015	151.197	1	9999	-9999	0	0	0	0;
	863	1520	108.344	762	0	1.02	1676.23	1	9999	-9999	0	0	0	0;
	864	1.379	4.587	0	0	0.974	36.407	1	9999	-9999	0	0	0	0;
	868	1000	0	385	0	1.04	1100	1	9999	-9999	0	0	0	0;
	869	60	133.971	168	0	1.02	161.432	1	9999	-9999	0	0	0	0;
	878	40	25.361	40	-20	1.02	52.096	1	9999	-9999	0	0	0	0;
	879	1725	283.246	1160	-58	1.05	1922.91	1	9999	-9999	0	0	0	0;
	880	135	52.106	155	-40	1.04	159.173	1	9999	-9999	0	0	0	0;
	881	629	-35.292	308	-137	1.04	692.989	1	9999	-9999	0	0	0	0;
	882	3.3	60	60	-30	1.06	66.1	1	9999	-9999	0	0	0	0;
	883	590	42.444	290	-120	1.05	650.677	1	9999	-9999	0	0	0	0;
	884	459	-50.035	255	-119	1.019	507.892	1	9999	-9999	0	0	0	0;
	891	79	54.98	55	-27	1.024	105.855	1	9999	-9999	0	0	0	0;
	892	79	53.465	55	-27	1.024	104.914	1	9999	-9999	0	0	0	0;
	1021	409	221.26	325	-160	1.04	511.506	1	9999	-9999	0	0	0	0;
	1022	26	52.438	85	-40	1.04	64.383	1	9999	-9999	0	0	0	0;
	1023	36	40	40	-20	1.04	59.196	1	9999	-9999	0	0	0	0;
	1025	199	90.334	115	-60	1.04	240.395	1	9999	-9999	0	0	0	0;
	1045	1445	0.137	1050	-525	1.04	1589.5	1	9999	-9999	0	0	0	0;
	1097	750	-53.278	500	-250	1.04	827.08	1	9999	-9999	0	0	0	0;
	1098	170	21.175	90	-50	1.03	188.445	1	9999	-9999	0	0	0	0;
	1146	180	-32.357	90	-50	1.02	201.173	1	9999	-9999	0	0	0	0;
...
];

%%%% generator cost data
%%	1	startup	shutdown	n	x1	y1	...	xn	yn
%%	2	startup	shutdown	n	c(n-1)	...	c0
mpc.gencost = [
	1	0	0	3	0.01	0.1	10;
	1	0	0	3	0.01	0.1	10;
	1	0	0	3	0.01	0.1	10;
	1	0	0	3	0.01	0.1	10;
	1	0	0	3	0.01	0.1	10;
	1	0	0	3	0.01	0.1	10;
	1	0	0	3	0.01	0.1	10;
	1	0	0	3	0.01	0.1	10;
	1	0	0	3	0.01	0.1	10;
	1	0	0	3	0.01	0.1	10;
	1	0	0	3	0.01	0.1	10;
	1	0	0	3	0.01	0.1	10;
	1	0	0	3	0.01	0.1	10;
	1	0	0	3	0.01	0.1	10;
	1	0	0	3	0.01	0.1	10;
	1	0	0	3	0.01	0.1	10;
	1	0	0	3	0.01	0.1	10;
	1	0	0	3	0.01	0.1	10;
	1	0	0	3	0.01	0.1	10;
	1	0	0	3	0.01	0.1	10;
	1	0	0	3	0.01	0.1	10;
	1	0	0	3	0.01	0.1	10;
	1	0	0	3	0.01	0.1	10;
	1	0	0	3	0.01	0.1	10;
	1	0	0	3	0.01	0.1	10;
	1	0	0	3	0.01	0.1	10;
	1	0	0	3	0.01	0.1	10;
	1	0	0	3	0.01	0.1	10;
	1	0	0	3	0.01	0.1	10;
	1	0	0	3	0.01	0.1	10;
	1	0	0	3	0.01	0.1	10;
	1	0	0	3	0.01	0.1	10;
	1	0	0	3	0.01	0.1	10;
	1	0	0	3	0.01	0.1	10;
	1	0	0	3	0.01	0.1	10;
	1	0	0	3	0.01	0.1	10;
	1	0	0	3	0.01	0.1	10;
	1	0	0	3	0.01	0.1	10;
	1	0	0	3	0.01	0.1	10;
	1	0	0	3	0.01	0.1	10;
	1	0	0	3	0.01	0.1	10;
	1	0	0	3	0.01	0.1	10;
	1	0	0	3	0.01	0.1	10;
	1	0	0	3	0.01	0.1	10;
	1	0	0	3	0.01	0.1	10;
	1	0	0	3	0.01	0.1	10;
	1	0	0	3	0.01	0.1	10;
	1	0	0	3	0.01	0.1	10;
	1	0	0	3	0.01	0.1	10;
	1	0	0	3	0.01	0.1	10;
	1	0	0	3	0.01	0.1	10;
	1	0	0	3	0.01	0.1	10;
	1	0	0	3	0.01	0.1	10;
	1	0	0	3	0.01	0.1	10;
	1	0	0	3	0.01	0.1	10;
	1	0	0	3	0.01	0.1	10;
	1	0	0	3	0.01	0.1	10;
	1	0	0	3	0.01	0.1	10;
	1	0	0	3	0.01	0.1	10;
	1	0	0	3	0.01	0.1	10;
	1	0	0	3	0.01	0.1	10;
	1	0	0	3	0.01	0.1	10;
	1	0	0	3	0.01	0.1	10;
	1	0	0	3	0.01	0.1	10;
	1	0	0	3	0.01	0.1	10;
	1	0	0	3	0.01	0.1	10;
	1	0	0	3	0.01	0.1	10;
	1	0	0	3	0.01	0.1	10;
	1	0	0	3	0.01	0.1	10;
	1	0	0	3	0.01	0.1	10;
	1	0	0	3	0.01	0.1	10;
	1	0	0	3	0.01	0.1	10;
	1	0	0	3	0.01	0.1	10;
	1	0	0	3	0.01	0.1	10;
	1	0	0	3	0.01	0.1	10;
	1	0	0	3	0.01	0.1	10;
	1	0	0	3	0.01	0.1	10;
	1	0	0	3	0.01	0.1	10;
	1	0	0	3	0.01	0.1	10;
	1	0	0	3	0.01	0.1	10;
	1	0	0	3	0.01	0.1	10;
	1	0	0	3	0.01	0.1	10;
	1	0	0	3	0.01	0.1	10;
	1	0	0	3	0.01	0.1	10;
	1	0	0	3	0.01	0.1	10;
	1	0	0	3	0.01	0.1	10;
	1	0	0	3	0.01	0.1	10;
	1	0	0	3	0.01	0.1	10;
	1	0	0	3	0.01	0.1	10;
	1	0	0	3	0.01	0.1	10;
	1	0	0	3	0.01	0.1	10;
	1	0	0	3	0.01	0.1	10;
	1	0	0	3	0.01	0.1	10;
	1	0	0	3	0.01	0.1	10;
	1	0	0	3	0.01	0.1	10;
	1	0	0	3	0.01	0.1	10;
	1	0	0	3	0.01	0.1	10;
	1	0	0	3	0.01	0.1	10;
	1	0	0	3	0.01	0.1	10;
	1	0	0	3	0.01	0.1	10;
	1	0	0	3	0.01	0.1	10;
	1	0	0	3	0.01	0.1	10;
	1	0	0	3	0.01	0.1	10;
	1	0	0	3	0.01	0.1	10;
	1	0	0	3	0.01	0.1	10;
	1	0	0	3	0.01	0.1	10;
	1	0	0	3	0.01	0.1	10;
	1	0	0	3	0.01	0.1	10;
	1	0	0	3	0.01	0.1	10;
	1	0	0	3	0.01	0.1	10;
	1	0	0	3	0.01	0.1	10;
	1	0	0	3	0.01	0.1	10;
	1	0	0	3	0.01	0.1	10;
	1	0	0	3	0.01	0.1	10;
	1	0	0	3	0.01	0.1	10;
	1	0	0	3	0.01	0.1	10;
	1	0	0	3	0.01	0.1	10;
	1	0	0	3	0.01	0.1	10;
	1	0	0	3	0.01	0.1	10;
	1	0	0	3	0.01	0.1	10;
	1	0	0	3	0.01	0.1	10;
	1	0	0	3	0.01	0.1	10;
	1	0	0	3	0.01	0.1	10;
	1	0	0	3	0.01	0.1	10;
	1	0	0	3	0.01	0.1	10;
	1	0	0	3	0.01	0.1	10;
	1	0	0	3	0.01	0.1	10;
	1	0	0	3	0.01	0.1	10;
	1	0	0	3	0.01	0.1	10;
	1	0	0	3	0.01	0.1	10;
	1	0	0	3	0.01	0.1	10;
	1	0	0	3	0.01	0.1	10;
	1	0	0	3	0.01	0.1	10;
	1	0	0	3	0.01	0.1	10;
	1	0	0	3	0.01	0.1	10;
	1	0	0	3	0.01	0.1	10;
	1	0	0	3	0.01	0.1	10;
	1	0	0	3	0.01	0.1	10;
	1	0	0	3	0.01	0.1	10;
	1	0	0	3	0.01	0.1	10;
	1	0	0	3	0.01	0.1	10;
	1	0	0	3	0.01	0.1	10;
	1	0	0	3	0.01	0.1	10;
	1	0	0	3	0.01	0.1	10;
	1	0	0	3	0.01	0.1	10;
	1	0	0	3	0.01	0.1	10;
	1	0	0	3	0.01	0.1	10;
	1	0	0	3	0.01	0.1	10;
	1	0	0	3	0.01	0.1	10;
	1	0	0	3	0.01	0.1	10;
	1	0	0	3	0.01	0.1	10;
	1	0	0	3	0.01	0.1	10;
	1	0	0	3	0.01	0.1	10;
	1	0	0	3	0.01	0.1	10;
	1	0	0	3	0.01	0.1	10;
	1	0	0	3	0.01	0.1	10;
	1	0	0	3	0.01	0.1	10;
	1	0	0	3	0.01	0.1	10;
	1	0	0	3	0.01	0.1	10;
	1	0	0	3	0.01	0.1	10;
	1	0	0	3	0.01	0.1	10;
	1	0	0	3	0.01	0.1	10;
	1	0	0	3	0.01	0.1	10;
	1	0	0	3	0.01	0.1	10;
	1	0	0	3	0.01	0.1	10;
	1	0	0	3	0.01	0.1	10;
	1	0	0	3	0.01	0.1	10;
	1	0	0	3	0.01	0.1	10;
	1	0	0	3	0.01	0.1	10;
	1	0	0	3	0.01	0.1	10;
	1	0	0	3	0.01	0.1	10;
	1	0	0	3	0.01	0.1	10;
	1	0	0	3	0.01	0.1	10;
	1	0	0	3	0.01	0.1	10;
	1	0	0	3	0.01	0.1	10;
	1	0	0	3	0.01	0.1	10;
	1	0	0	3	0.01	0.1	10;
	1	0	0	3	0.01	0.1	10;
	1	0	0	3	0.01	0.1	10;
	1	0	0	3	0.01	0.1	10;
	1	0	0	3	0.01	0.1	10;
	1	0	0	3	0.01	0.1	10;
	1	0	0	3	0.01	0.1	10;
	1	0	0	3	0.01	0.1	10;
	1	0	0	3	0.01	0.1	10;
	1	0	0	3	0.01	0.1	10;
	1	0	0	3	0.01	0.1	10;
	1	0	0	3	0.01	0.1	10;
	1	0	0	3	0.01	0.1	10;
	1	0	0	3	0.01	0.1	10;
	1	0	0	3	0.01	0.1	10;
	1	0	0	3	0.01	0.1	10;
	1	0	0	3	0.01	0.1	10;
	1	0	0	3	0.01	0.1	10;
	1	0	0	3	0.01	0.1	10;
	1	0	0	3	0.01	0.1	10;
	1	0	0	3	0.01	0.1	10;
	1	0	0	3	0.01	0.1	10;
	1	0	0	3	0.01	0.1	10;
	1	0	0	3	0.01	0.1	10;
...
];
